[General]
network = progetto
sim-time-limit = 21600s
**.n = 4  #num server
**.m = 2  #num client
**.k = 5  #num key
**.r = 2   #num replicas
**.t = 2   #num op in trans  (DA CAMBIARE IN MESSAGE SE VOGLIO MODIFICARE!)
progetto.nodes[*].delay = uniform(0.01s, 0.02s)
**.reqPeriod = uniform(0s, 1s)
